/*--------------------------------*- C++ -*----------------------------------*\
| =========                 |                                                 |
| \\      /  F ield         | OpenFOAM: The Open Source CFD Toolbox           |
|  \\    /   O peration     | Version:  5.x                                   |
|   \\  /    A nd           | Web:      www.OpenFOAM.org                      |
|    \\/     M anipulation  |                                                 |
\*---------------------------------------------------------------------------*/
FoamFile
{
    version     2.0;
    format      ascii;
    class       volScalarField;
    location    "0";
    object      nut;
}
// * * * * * * * * * * * * * * * * * * * * * * * * * * * * * * * * * * * * * //

dimensions      [0 2 -1 0 0 0 0];

internalField   uniform 0;

boundaryField
{
    AMI1
    {
        type            cyclicAMI;
        value           uniform 0;
    }

    AMI2
    {
        type            cyclicAMI;
        value           uniform 0;
    }

    inlet 
    {
        type            calculated;
        value           uniform 0;
    }

    outlet 
    {
        type            calculated;
        value           uniform 0;
    }

    top
    {
        type            calculated;
        value           uniform 0;
    }

    bottom 
    {
        type            calculated;
        value           uniform 0;
    }

    VAWT 
    {
        type            nutkWallFunction;
        value           uniform 0;
    }

    front
    {
        type            empty;
    }

    back
    {
        type            empty;
    }
}


// ************************************************************************* //
